56

 C   1.978800   2.660100   1.626200
 C   2.117200   1.573000   0.650200
 C   3.132100   1.086500   0.384200
 C   4.488300   1.912600   0.707300
 C   5.792400   1.477300   0.541000
 C   6.051400   0.212800   0.049000
 C   5.001300  -0.633700  -0.174600
 C   3.682300  -0.199000  -0.100000
 C   2.550800  -1.085500  -0.437300
 O   2.633300  -2.108700  -1.072200
 C   1.140300  -0.723100  -0.006100
 C   0.297900  -1.420200  -0.464200
 C  -1.131400  -1.153800  -0.076200
 C  -1.256000  -0.298700   1.191300
 H  -0.856400  -0.896000   2.010800
 C  -0.347400   0.911900   0.999400
 C   1.302900   0.421000   0.963000
 H   1.389500   0.072600   1.955300
 C  -2.667100   0.120100   1.556000
 H  -2.621200   0.858100   2.356800
 C  -3.402000   0.711900   0.490800
 C  -3.025200   0.378700  -0.908300
 C  -1.869600  -0.353500  -1.195800
 O  -1.401100  -0.395300  -2.314700
 C  -3.803400   1.062200  -2.012600
 O  -4.592800   0.373400  -2.730700
 N  -3.641500   2.359700  -2.339200
 O  -4.464500   1.495800   0.625900
 N  -3.404900  -1.056600   2.034600
 C  -2.875300  -1.521500   3.323500
 C  -4.843400  -0.774000   2.127700
 O  -1.729500  -2.282500   0.235800
 O   0.441000  -2.425400  -1.328800
 O   5.251400  -1.876700  -0.757700
 O   1.556100   2.117200  -0.688100
 H   2.617400   3.491000   1.226200
 H   0.955200   3.014300   1.648500
 H   2.336500   2.149500   2.570400
 H   4.297400   2.903700   1.091500
 H   6.612800   2.031200   0.797500
 H   7.071300  -0.116500  -0.184100
 H  -0.590800   1.409100   0.060500
 H  -0.480000   1.606300   1.829000
 H  -2.963800   2.891200  -1.892900
 H  -4.202600   2.762000  -3.020500
 H  -4.880100   1.913700  -0.140700
 H  -2.989000  -0.734000   4.068500
 H  -3.424500  -2.406800   3.644000
 H  -1.819300  -1.768800   3.214500
 H  -5.247400  -0.612800   1.128200
 H  -5.350500  -1.619600   2.592500
 H  -4.899800   0.120000   2.731300
 H  -1.900400  -2.986700  -0.618700
 H   0.227100  -3.320700  -1.032500
 H   5.327600  -2.556400  -0.174100
 H   2.083700   2.960000  -1.112000
